44
MBIHC molecule
C 5.805907 1.874250 -0.659145
N 5.834700 0.809248 0.338012
C 4.665608 0.227674 0.870232
S 4.601128 -0.543441 2.369256
N 3.557391 0.358016 0.034322
N 2.332785 -0.154977 0.368973
C 1.415048 -0.057649 -0.535425
C 0.087148 -0.581666 -0.292333
C -0.929728 -0.540478 -1.227872
N -2.054133 -1.108004 -0.679177
C -3.315439 -1.271982 -1.396679
C -4.041390 0.037826 -1.591128
C -4.420461 0.827065 -0.493638
C -5.106853 2.027314 -0.685231
C -5.429497 2.448934 -1.973067
C -5.070639 1.669159 -3.070649
C -4.383321 0.468228 -2.881208
C -1.789006 -1.537256 0.605548
C -2.605242 -2.173435 1.558146
C -2.049817 -2.496177 2.799904
C -0.724553 -2.194615 3.087978
C 0.079790 -1.558500 2.137499
C -0.450306 -1.219569 0.872533
C 7.161293 0.519520 0.880807
H 4.831052 2.371309 -0.698752
H 6.560965 2.628467 -0.408978
H 6.039480 1.436851 -1.635662
H 3.716598 0.602010 -0.933913
H 1.597296 0.416285 -1.514942
H -0.949943 -0.144771 -2.234743
H -3.062361 -1.733784 -2.360061
H -3.954099 -1.980714 -0.859518
H -4.175864 0.516639 0.520875
H -5.386287 2.634367 0.171541
H -5.963230 3.384438 -2.120644
H -5.328438 1.996648 -4.075951
H -4.116815 -0.127151 -3.751388
H -3.643237 -2.414451 1.352758
H -2.662561 -2.991493 3.550078
H -0.302261 -2.454190 4.055895
H 1.115764 -1.328801 2.377803
H 7.416831 1.293406 1.611933
H 7.203710 -0.463571 1.356029
H 7.892984 0.529018 0.065853
