
     RDKit          3D

 44 46  0  0  0  0  0  0  0  0999 V2000
    5.8059    1.8742   -0.6591 C   0  0  0  0  0  0  0  0  0  0  0  0
    5.8347    0.8092    0.3380 N   0  0  0  0  0  0  0  0  0  0  0  0
    4.6656    0.2277    0.8702 C   0  0  0  0  0  0  0  0  0  0  0  0
    4.6011   -0.5434    2.3693 S   0  0  0  0  0  0  0  0  0  0  0  0
    3.5574    0.3580    0.0343 N   0  0  0  0  0  0  0  0  0  0  0  0
    2.3328   -0.1550    0.3690 N   0  0  0  0  0  0  0  0  0  0  0  0
    1.4150   -0.0576   -0.5354 C   0  0  0  0  0  0  0  0  0  0  0  0
    0.0871   -0.5817   -0.2923 C   0  0  0  0  0  0  0  0  0  0  0  0
   -0.9297   -0.5405   -1.2279 C   0  0  0  0  0  0  0  0  0  0  0  0
   -2.0541   -1.1080   -0.6792 N   0  0  0  0  0  0  0  0  0  0  0  0
   -3.3154   -1.2720   -1.3967 C   0  0  0  0  0  0  0  0  0  0  0  0
   -4.0414    0.0378   -1.5911 C   0  0  0  0  0  0  0  0  0  0  0  0
   -4.4205    0.8271   -0.4936 C   0  0  0  0  0  0  0  0  0  0  0  0
   -5.1069    2.0273   -0.6852 C   0  0  0  0  0  0  0  0  0  0  0  0
   -5.4295    2.4489   -1.9731 C   0  0  0  0  0  0  0  0  0  0  0  0
   -5.0706    1.6692   -3.0706 C   0  0  0  0  0  0  0  0  0  0  0  0
   -4.3833    0.4682   -2.8812 C   0  0  0  0  0  0  0  0  0  0  0  0
   -1.7890   -1.5373    0.6055 C   0  0  0  0  0  0  0  0  0  0  0  0
   -2.6052   -2.1734    1.5581 C   0  0  0  0  0  0  0  0  0  0  0  0
   -2.0498   -2.4962    2.7999 C   0  0  0  0  0  0  0  0  0  0  0  0
   -0.7246   -2.1946    3.0880 C   0  0  0  0  0  0  0  0  0  0  0  0
    0.0798   -1.5585    2.1375 C   0  0  0  0  0  0  0  0  0  0  0  0
   -0.4503   -1.2196    0.8725 C   0  0  0  0  0  0  0  0  0  0  0  0
    7.1613    0.5195    0.8808 C   0  0  0  0  0  0  0  0  0  0  0  0
    4.8311    2.3713   -0.6988 H   0  0  0  0  0  0  0  0  0  0  0  0
    6.5610    2.6285   -0.4090 H   0  0  0  0  0  0  0  0  0  0  0  0
    6.0395    1.4369   -1.6357 H   0  0  0  0  0  0  0  0  0  0  0  0
    3.7166    0.6020   -0.9339 H   0  0  0  0  0  0  0  0  0  0  0  0
    1.5973    0.4163   -1.5149 H   0  0  0  0  0  0  0  0  0  0  0  0
   -0.9499   -0.1448   -2.2347 H   0  0  0  0  0  0  0  0  0  0  0  0
   -3.0624   -1.7338   -2.3601 H   0  0  0  0  0  0  0  0  0  0  0  0
   -3.9541   -1.9807   -0.8595 H   0  0  0  0  0  0  0  0  0  0  0  0
   -4.1759    0.5166    0.5209 H   0  0  0  0  0  0  0  0  0  0  0  0
   -5.3863    2.6344    0.1715 H   0  0  0  0  0  0  0  0  0  0  0  0
   -5.9632    3.3844   -2.1206 H   0  0  0  0  0  0  0  0  0  0  0  0
   -5.3284    1.9966   -4.0760 H   0  0  0  0  0  0  0  0  0  0  0  0
   -4.1168   -0.1272   -3.7514 H   0  0  0  0  0  0  0  0  0  0  0  0
   -3.6432   -2.4145    1.3528 H   0  0  0  0  0  0  0  0  0  0  0  0
   -2.6626   -2.9915    3.5501 H   0  0  0  0  0  0  0  0  0  0  0  0
   -0.3023   -2.4542    4.0559 H   0  0  0  0  0  0  0  0  0  0  0  0
    1.1158   -1.3288    2.3778 H   0  0  0  0  0  0  0  0  0  0  0  0
    7.4168    1.2934    1.6119 H   0  0  0  0  0  0  0  0  0  0  0  0
    7.2037   -0.4636    1.3560 H   0  0  0  0  0  0  0  0  0  0  0  0
    7.8930    0.5290    0.0659 H   0  0  0  0  0  0  0  0  0  0  0  0
  1  2  1  0
  2  3  1  0
  3  4  2  0
  3  5  1  0
  5  6  1  0
  6  7  2  0
  7  8  1  0
  8  9  2  0
  9 10  1  0
 10 11  1  0
 11 12  1  0
 12 13  2  0
 13 14  1  0
 14 15  2  0
 15 16  1  0
 16 17  2  0
 10 18  1  0
 18 19  2  0
 19 20  1  0
 20 21  2  0
 21 22  1  0
 22 23  2  0
  2 24  1  0
 23  8  1  0
 17 12  1  0
 23 18  1  0
  1 25  1  0
  1 26  1  0
  1 27  1  0
  5 28  1  0
  7 29  1  0
  9 30  1  0
 11 31  1  0
 11 32  1  0
 13 33  1  0
 14 34  1  0
 15 35  1  0
 16 36  1  0
 17 37  1  0
 19 38  1  0
 20 39  1  0
 21 40  1  0
 22 41  1  0
 24 42  1  0
 24 43  1  0
 24 44  1  0
M  END
$$$$
