35
L1
O -0.162697 -2.646781 -1.366615
C 0.069316 -1.648886 -0.687531
C 1.471086 -1.385301 -0.155881
S 2.002000 0.326037 -0.499941
C 3.671294 0.240779 0.118152
C 4.738627 0.434628 -0.763500
C 6.054808 0.377689 -0.300124
C 6.309666 0.135016 1.048534
C 5.249598 -0.045674 1.935436
C 3.933012 0.010653 1.472506
N -0.863630 -0.727952 -0.260519
C -2.257044 -0.689959 -0.505232
C -2.940339 -1.682366 -1.214835
C -4.314728 -1.577367 -1.417851
C -5.009745 -0.482752 -0.912453
C -4.332045 0.516535 -0.196691
C -5.009320 1.628208 0.322364
C -4.309622 2.600200 1.025899
C -2.949575 2.427815 1.190266
N -2.260452 1.370285 0.708264
C -2.939584 0.421834 0.017316
H 1.472291 -1.581862 0.920812
H 2.163707 -2.078880 -0.643779
H 4.554916 0.628913 -1.817744
H 6.879913 0.525537 -0.992192
H 7.334371 0.093001 1.409149
H 5.447650 -0.224774 2.989173
H 3.119283 -0.115613 2.181798
H -0.524507 0.094424 0.239974
H -2.426584 -2.547628 -1.621439
H -4.840054 -2.351337 -1.972253
H -6.082210 -0.414001 -1.080250
H -6.081102 1.741568 0.179834
H -4.813112 3.469085 1.434123
H -2.355188 3.158926 1.731323