39
Coordinates from ORCA-job ligand4
  O          -0.93081110050725     -3.55998383490200     -0.33659802346585
  C          -0.66050655851216     -2.76439834768326      0.54989184566082
  C           0.32113724852760     -3.17889383296356      1.63854005114523
  S           1.05733864209365     -1.88308389326566      2.65717703198454
  C           2.08081608508076     -1.06600269684998      1.44680566913788
  C           3.26392465823497     -1.66939209319796      0.99083766926895
  C           4.05999736500223     -1.03632403904349      0.04994394805441
  C           3.70034402856809      0.22912755792572     -0.44711257307385
  O           4.53380292458740      0.77034580516137     -1.35428090113933
  C           4.22661142456120      2.03392070803057     -1.90503051709893
  C           2.53294909520725      0.84418018876267      0.01848218249740
  C           1.73172753587997      0.19175652702667      0.95884111789318
  N          -1.17177745692669     -1.51895702805015      0.67948614111965
  C          -2.09073273789054     -0.86115225032300     -0.13712350460271
  C          -2.66870148988948     -1.39053402924572     -1.27294608680223
  C          -3.58450718279493     -0.61878058168170     -2.03105377120449
  C          -3.92168107435783      0.66014984159261     -1.66638475365299
  C          -3.33965993176534      1.23452300807744     -0.50201665802805
  C          -3.62583950888288      2.55189936987333     -0.05422532337882
  C          -3.01554837177505      3.03191161914778      1.07710506907140
  C          -2.10915345373558      2.19157963038490      1.76965200453149
  N          -1.82206497973169      0.96991119465989      1.38540214939675
  C          -2.42006989727160      0.48010572846875      0.26760493746607
  H           1.09400241798933     -3.79887941581753      1.16248114553114
  H          -0.20926699222158     -3.85127728161108      2.33337987802111
  H           3.55992304714046     -2.64800732926200      1.37897849812563
  H           4.97714476594592     -1.50132269695953     -0.31866164088387
  H           5.03135458989905      2.26997258479391     -2.61067137699544
  H           3.26576745100567      2.01479441086189     -2.44535914447768
  H           4.18210109326985      2.81285598328314     -1.12621416968463
  H           2.22862361295168      1.82807132347374     -0.34026953421932
  H           0.81382315143624      0.67700224305420      1.30244184653834
  H          -0.87273069107154     -0.99223149716056      1.50430272293820
  H          -2.41113475385266     -2.40318481478419     -1.57600420607537
  H          -4.02425176469780     -1.06644152205387     -2.92588950295715
  H          -4.62940228300344      1.24957865222251     -2.25445677721691
  H          -4.33031501608054      3.16524661914322     -0.62307052734421
  H          -3.21308909203590      4.03921911575808      1.44865231265895
  H          -1.61014380037688      2.56269307315287      2.67162077126068
